Scenario_Village/VillageIEEE.txt
 04/12/16 KIT AIFB             0.25    2016 S KIT AIFB 61 BUS LV_VILLAGE
BUS DATA FOLLOWS 61 ITEMS
0001  BUS_0000001  1  1  3 1.000 0.0        0.0     0.0       0.0     0.0   0.4     0.0     0.0     0.0     0.0     0.0       0
0002  BUS_0000002  1  1  0 x.xxx x.xxx  xxxxx.xx  xxx.xx      0.0     0.0   0.4     0.0     0.0     0.0     0.0     0.0       0
0003  BUS_0000003  1  1  0 x.xxx x.xxx  xxxxx.xx  xxx.xx      0.0     0.0   0.4     0.0     0.0     0.0     0.0     0.0       0
0004  BUS_0000004  1  1  0 x.xxx x.xxx  xxxxx.xx  xxx.xx      0.0     0.0   0.4     0.0     0.0     0.0     0.0     0.0       0
0005  BUS_0000005  1  1  0 x.xxx x.xxx  xxxxx.xx  xxx.xx      0.0     0.0   0.4     0.0     0.0     0.0     0.0     0.0       0
0006  BUS_0000006  1  1  0 x.xxx x.xxx  xxxxx.xx  xxx.xx      0.0     0.0   0.4     0.0     0.0     0.0     0.0     0.0       0
0007  BUS_0000007  1  1  0 x.xxx x.xxx  xxxxx.xx  xxx.xx      0.0     0.0   0.4     0.0     0.0     0.0     0.0     0.0       0
0008  BUS_0000008  1  1  0 x.xxx x.xxx  xxxxx.xx  xxx.xx      0.0     0.0   0.4     0.0     0.0     0.0     0.0     0.0       0
0009  BUS_0000009  1  1  0 x.xxx x.xxx  xxxxx.xx  xxx.xx      0.0     0.0   0.4     0.0     0.0     0.0     0.0     0.0       0
0010  BUS_0000010  1  1  0 x.xxx x.xxx  xxxxx.xx  xxx.xx      0.0     0.0   0.4     0.0     0.0     0.0     0.0     0.0       0
0011  BUS_0000011  1  1  0 x.xxx x.xxx  xxxxx.xx  xxx.xx      0.0     0.0   0.4     0.0     0.0     0.0     0.0     0.0       0
0012  BUS_0000012  1  1  0 x.xxx x.xxx  xxxxx.xx  xxx.xx      0.0     0.0   0.4     0.0     0.0     0.0     0.0     0.0       0
0013  BUS_0000013  1  1  0 x.xxx x.xxx  xxxxx.xx  xxx.xx      0.0     0.0   0.4     0.0     0.0     0.0     0.0     0.0       0
0014  BUS_0000014  1  1  0 x.xxx x.xxx  xxxxx.xx  xxx.xx      0.0     0.0   0.4     0.0     0.0     0.0     0.0     0.0       0
0015  BUS_0000015  1  1  0 x.xxx x.xxx  xxxxx.xx  xxx.xx      0.0     0.0   0.4     0.0     0.0     0.0     0.0     0.0       0
0016  BUS_0000016  1  1  0 x.xxx x.xxx  xxxxx.xx  xxx.xx      0.0     0.0   0.4     0.0     0.0     0.0     0.0     0.0       0
0017  BUS_0000017  1  1  0 x.xxx x.xxx  xxxxx.xx  xxx.xx      0.0     0.0   0.4     0.0     0.0     0.0     0.0     0.0       0
0018  BUS_0000018  1  1  0 x.xxx x.xxx  xxxxx.xx  xxx.xx      0.0     0.0   0.4     0.0     0.0     0.0     0.0     0.0       0
0019  BUS_0000019  1  1  0 x.xxx x.xxx  xxxxx.xx  xxx.xx      0.0     0.0   0.4     0.0     0.0     0.0     0.0     0.0       0
0020  BUS_0000020  1  1  0 x.xxx x.xxx  xxxxx.xx  xxx.xx      0.0     0.0   0.4     0.0     0.0     0.0     0.0     0.0       0
0021  BUS_0000021  1  1  0 x.xxx x.xxx  xxxxx.xx  xxx.xx      0.0     0.0   0.4     0.0     0.0     0.0     0.0     0.0       0
0022  BUS_0000022  1  1  0 x.xxx x.xxx  xxxxx.xx  xxx.xx      0.0     0.0   0.4     0.0     0.0     0.0     0.0     0.0       0
0023  BUS_0000023  1  1  0 x.xxx x.xxx  xxxxx.xx  xxx.xx      0.0     0.0   0.4     0.0     0.0     0.0     0.0     0.0       0
0024  BUS_0000024  1  1  0 x.xxx x.xxx  xxxxx.xx  xxx.xx      0.0     0.0   0.4     0.0     0.0     0.0     0.0     0.0       0
0025  BUS_0000025  1  1  0 x.xxx x.xxx  xxxxx.xx  xxx.xx      0.0     0.0   0.4     0.0     0.0     0.0     0.0     0.0       0
0026  BUS_0000026  1  1  0 x.xxx x.xxx  xxxxx.xx  xxx.xx      0.0     0.0   0.4     0.0     0.0     0.0     0.0     0.0       0
0027  BUS_0000027  1  1  0 x.xxx x.xxx  xxxxx.xx  xxx.xx      0.0     0.0   0.4     0.0     0.0     0.0     0.0     0.0       0
0028  BUS_0000028  1  1  0 x.xxx x.xxx  xxxxx.xx  xxx.xx      0.0     0.0   0.4     0.0     0.0     0.0     0.0     0.0       0
0029  BUS_0000029  1  1  0 x.xxx x.xxx  xxxxx.xx  xxx.xx      0.0     0.0   0.4     0.0     0.0     0.0     0.0     0.0       0
0030  BUS_0000030  1  1  0 x.xxx x.xxx  xxxxx.xx  xxx.xx      0.0     0.0   0.4     0.0     0.0     0.0     0.0     0.0       0
0031  BUS_0000031  1  1  0 x.xxx x.xxx  xxxxx.xx  xxx.xx      0.0     0.0   0.4     0.0     0.0     0.0     0.0     0.0       0
0032  BUS_0000032  1  1  0 x.xxx x.xxx  xxxxx.xx  xxx.xx      0.0     0.0   0.4     0.0     0.0     0.0     0.0     0.0       0
0033  BUS_0000033  1  1  0 x.xxx x.xxx  xxxxx.xx  xxx.xx      0.0     0.0   0.4     0.0     0.0     0.0     0.0     0.0       0
0034  BUS_0000034  1  1  0 x.xxx x.xxx  xxxxx.xx  xxx.xx      0.0     0.0   0.4     0.0     0.0     0.0     0.0     0.0       0
0035  BUS_0000035  1  1  0 x.xxx x.xxx  xxxxx.xx  xxx.xx      0.0     0.0   0.4     0.0     0.0     0.0     0.0     0.0       0
0036  BUS_0000036  1  1  0 x.xxx x.xxx  xxxxx.xx  xxx.xx      0.0     0.0   0.4     0.0     0.0     0.0     0.0     0.0       0
0037  BUS_0000037  1  1  0 x.xxx x.xxx  xxxxx.xx  xxx.xx      0.0     0.0   0.4     0.0     0.0     0.0     0.0     0.0       0
0038  BUS_0000038  1  1  0 x.xxx x.xxx  xxxxx.xx  xxx.xx      0.0     0.0   0.4     0.0     0.0     0.0     0.0     0.0       0
0039  BUS_0000039  1  1  0 x.xxx x.xxx  xxxxx.xx  xxx.xx      0.0     0.0   0.4     0.0     0.0     0.0     0.0     0.0       0
0040  BUS_0000040  1  1  0 x.xxx x.xxx  xxxxx.xx  xxx.xx      0.0     0.0   0.4     0.0     0.0     0.0     0.0     0.0       0
0041  BUS_0000041  1  1  0 x.xxx x.xxx  xxxxx.xx  xxx.xx      0.0     0.0   0.4     0.0     0.0     0.0     0.0     0.0       0
0042  BUS_0000042  1  1  0 x.xxx x.xxx  xxxxx.xx  xxx.xx      0.0     0.0   0.4     0.0     0.0     0.0     0.0     0.0       0
0043  BUS_0000043  1  1  0 x.xxx x.xxx  xxxxx.xx  xxx.xx      0.0     0.0   0.4     0.0     0.0     0.0     0.0     0.0       0
0044  BUS_0000044  1  1  0 x.xxx x.xxx  xxxxx.xx  xxx.xx      0.0     0.0   0.4     0.0     0.0     0.0     0.0     0.0       0
0045  BUS_0000045  1  1  0 x.xxx x.xxx  xxxxx.xx  xxx.xx      0.0     0.0   0.4     0.0     0.0     0.0     0.0     0.0       0
0046  BUS_0000046  1  1  0 x.xxx x.xxx  xxxxx.xx  xxx.xx      0.0     0.0   0.4     0.0     0.0     0.0     0.0     0.0       0
0047  BUS_0000047  1  1  0 x.xxx x.xxx  xxxxx.xx  xxx.xx      0.0     0.0   0.4     0.0     0.0     0.0     0.0     0.0       0
0048  BUS_0000048  1  1  0 x.xxx x.xxx  xxxxx.xx  xxx.xx      0.0     0.0   0.4     0.0     0.0     0.0     0.0     0.0       0
0049  BUS_0000049  1  1  0 x.xxx x.xxx  xxxxx.xx  xxx.xx      0.0     0.0   0.4     0.0     0.0     0.0     0.0     0.0       0
0050  BUS_0000050  1  1  0 x.xxx x.xxx  xxxxx.xx  xxx.xx      0.0     0.0   0.4     0.0     0.0     0.0     0.0     0.0       0
0051  BUS_0000051  1  1  0 x.xxx x.xxx  xxxxx.xx  xxx.xx      0.0     0.0   0.4     0.0     0.0     0.0     0.0     0.0       0
0052  BUS_0000052  1  1  0 x.xxx x.xxx  xxxxx.xx  xxx.xx      0.0     0.0   0.4     0.0     0.0     0.0     0.0     0.0       0
0053  BUS_0000053  1  1  0 x.xxx x.xxx  xxxxx.xx  xxx.xx      0.0     0.0   0.4     0.0     0.0     0.0     0.0     0.0       0
0054  BUS_0000054  1  1  0 x.xxx x.xxx  xxxxx.xx  xxx.xx      0.0     0.0   0.4     0.0     0.0     0.0     0.0     0.0       0
0055  BUS_0000055  1  1  0 x.xxx x.xxx  xxxxx.xx  xxx.xx      0.0     0.0   0.4     0.0     0.0     0.0     0.0     0.0       0
0056  BUS_0000056  1  1  0 x.xxx x.xxx  xxxxx.xx  xxx.xx      0.0     0.0   0.4     0.0     0.0     0.0     0.0     0.0       0
0057  BUS_0000057  1  1  0 x.xxx x.xxx  xxxxx.xx  xxx.xx      0.0     0.0   0.4     0.0     0.0     0.0     0.0     0.0       0
0058  BUS_0000058  1  1  0 x.xxx x.xxx  xxxxx.xx  xxx.xx      0.0     0.0   0.4     0.0     0.0     0.0     0.0     0.0       0
0059  BUS_0000059  1  1  0 x.xxx x.xxx  xxxxx.xx  xxx.xx      0.0     0.0   0.4     0.0     0.0     0.0     0.0     0.0       0
0060  BUS_0000060  1  1  0 x.xxx x.xxx  xxxxx.xx  xxx.xx      0.0     0.0   0.4     0.0     0.0     0.0     0.0     0.0       0
0061  BUS_0000061  1  1  0 x.xxx x.xxx  xxxxx.xx  xxx.xx      0.0     0.0   0.4     0.0     0.0     0.0     0.0     0.0       0
-999
BRANCH DATA FOLLOWS                    60 ITEMS
   1    2  1 1  1 00.026     0.01          0.0    0.187 0.187 0.187    0     0.0    0.0     0.0    0.0      0.0    0.0    0.0 
   1   11  1 1  1 00.01463   0.005625      0.0    0.187 0.187 0.187    0     0.0    0.0     0.0    0.0      0.0    0.0    0.0 
   1   26  1 1  1 00.01852   0.007125      0.0    0.187 0.187 0.187    0     0.0    0.0     0.0    0.0      0.0    0.0    0.0 
   1   45  1 1  1 00.008125  0.003125      0.0    0.187 0.187 0.187    0     0.0    0.0     0.0    0.0      0.0    0.0    0.0 
   2    3  1 1  1 00.0078    0.003         0.0    0.187 0.187 0.187    0     0.0    0.0     0.0    0.0      0.0    0.0    0.0 
   3    4  1 1  1 00.009425  0.003625      0.0    0.187 0.187 0.187    0     0.0    0.0     0.0    0.0      0.0    0.0    0.0 
   4    5  1 1  1 00.01202   0.004625      0.0    0.187 0.187 0.187    0     0.0    0.0     0.0    0.0      0.0    0.0    0.0 
   5    6  1 1  1 00.01267   0.004875      0.0    0.187 0.187 0.187    0     0.0    0.0     0.0    0.0      0.0    0.0    0.0 
   6    7  1 1  1 00.01332   0.005125      0.0    0.187 0.187 0.187    0     0.0    0.0     0.0    0.0      0.0    0.0    0.0 
   7    8  1 1  1 00.01528   0.005875      0.0    0.187 0.187 0.187    0     0.0    0.0     0.0    0.0      0.0    0.0    0.0 
   8    9  1 1  1 00.01787   0.006875      0.0    0.187 0.187 0.187    0     0.0    0.0     0.0    0.0      0.0    0.0    0.0 
   9   10  1 1  1 00.02437   0.009375      0.0    0.187 0.187 0.187    0     0.0    0.0     0.0    0.0      0.0    0.0    0.0 
  11   12  1 1  1 00.01365   0.00525       0.0    0.187 0.187 0.187    0     0.0    0.0     0.0    0.0      0.0    0.0    0.0 
  12   13  1 1  1 00.009425  0.003625      0.0    0.187 0.187 0.187    0     0.0    0.0     0.0    0.0      0.0    0.0    0.0 
  13   14  1 1  1 00.008775  0.003375      0.0    0.187 0.187 0.187    0     0.0    0.0     0.0    0.0      0.0    0.0    0.0 
  14   15  1 1  1 00.008125  0.003125      0.0    0.187 0.187 0.187    0     0.0    0.0     0.0    0.0      0.0    0.0    0.0 
  15   16  1 1  1 00.0104    0.004         0.0    0.187 0.187 0.187    0     0.0    0.0     0.0    0.0      0.0    0.0    0.0 
  16   17  1 1  1 00.01007   0.003875      0.0    0.187 0.187 0.187    0     0.0    0.0     0.0    0.0      0.0    0.0    0.0 
  17   18  1 1  1 00.01072   0.004125      0.0    0.187 0.187 0.187    0     0.0    0.0     0.0    0.0      0.0    0.0    0.0 
  18   19  1 1  1 00.009425  0.003625      0.0    0.187 0.187 0.187    0     0.0    0.0     0.0    0.0      0.0    0.0    0.0 
  19   20  1 1  1 00.01007   0.003875      0.0    0.187 0.187 0.187    0     0.0    0.0     0.0    0.0      0.0    0.0    0.0 
  20   21  1 1  1 00.008125  0.003125      0.0    0.187 0.187 0.187    0     0.0    0.0     0.0    0.0      0.0    0.0    0.0 
  21   22  1 1  1 00.01202   0.004625      0.0    0.187 0.187 0.187    0     0.0    0.0     0.0    0.0      0.0    0.0    0.0 
  22   23  1 1  1 00.01332   0.005125      0.0    0.187 0.187 0.187    0     0.0    0.0     0.0    0.0      0.0    0.0    0.0 
  23   24  1 1  1 00.01397   0.005375      0.0    0.187 0.187 0.187    0     0.0    0.0     0.0    0.0      0.0    0.0    0.0 
  24   25  1 1  1 00.01235   0.00475       0.0    0.187 0.187 0.187    0     0.0    0.0     0.0    0.0      0.0    0.0    0.0 
  26   27  1 1  1 00.01463   0.005625      0.0    0.187 0.187 0.187    0     0.0    0.0     0.0    0.0      0.0    0.0    0.0 
  27   28  1 1  1 00.008125  0.003125      0.0    0.187 0.187 0.187    0     0.0    0.0     0.0    0.0      0.0    0.0    0.0 
  28   29  1 1  1 00.00975   0.00375       0.0    0.187 0.187 0.187    0     0.0    0.0     0.0    0.0      0.0    0.0    0.0 
  28   38  1 1  1 00.01202   0.004625      0.0    0.187 0.187 0.187    0     0.0    0.0     0.0    0.0      0.0    0.0    0.0 
  29   30  1 1  1 00.009425  0.003625      0.0    0.187 0.187 0.187    0     0.0    0.0     0.0    0.0      0.0    0.0    0.0 
  30   31  1 1  1 00.01137   0.004375      0.0    0.187 0.187 0.187    0     0.0    0.0     0.0    0.0      0.0    0.0    0.0 
  31   32  1 1  1 00.00325   0.00125       0.0    0.187 0.187 0.187    0     0.0    0.0     0.0    0.0      0.0    0.0    0.0 
  32   33  1 1  1 00.0065    0.0025        0.0    0.187 0.187 0.187    0     0.0    0.0     0.0    0.0      0.0    0.0    0.0 
  32   35  1 1  1 00.01463   0.005625      0.0    0.187 0.187 0.187    0     0.0    0.0     0.0    0.0      0.0    0.0    0.0 
  33   34  1 1  1 00.008775  0.003375      0.0    0.187 0.187 0.187    0     0.0    0.0     0.0    0.0      0.0    0.0    0.0 
  35   36  1 1  1 00.00975   0.00375       0.0    0.187 0.187 0.187    0     0.0    0.0     0.0    0.0      0.0    0.0    0.0 
  36   37  1 1  1 00.01202   0.004625      0.0    0.187 0.187 0.187    0     0.0    0.0     0.0    0.0      0.0    0.0    0.0 
  38   39  1 1  1 00.008125  0.003125      0.0    0.187 0.187 0.187    0     0.0    0.0     0.0    0.0      0.0    0.0    0.0 
  39   40  1 1  1 00.0078    0.003         0.0    0.187 0.187 0.187    0     0.0    0.0     0.0    0.0      0.0    0.0    0.0 
  40   41  1 1  1 00.008125  0.003125      0.0    0.187 0.187 0.187    0     0.0    0.0     0.0    0.0      0.0    0.0    0.0 
  41   42  1 1  1 00.0104    0.004         0.0    0.187 0.187 0.187    0     0.0    0.0     0.0    0.0      0.0    0.0    0.0 
  42   43  1 1  1 00.01722   0.006625      0.0    0.187 0.187 0.187    0     0.0    0.0     0.0    0.0      0.0    0.0    0.0 
  43   44  1 1  1 00.0195    0.0075        0.0    0.187 0.187 0.187    0     0.0    0.0     0.0    0.0      0.0    0.0    0.0 
  45   46  1 1  1 00.00975   0.00375       0.0    0.187 0.187 0.187    0     0.0    0.0     0.0    0.0      0.0    0.0    0.0 
  46   47  1 1  1 00.01137   0.004375      0.0    0.187 0.187 0.187    0     0.0    0.0     0.0    0.0      0.0    0.0    0.0 
  47   48  1 1  1 00.00325   0.00125       0.0    0.187 0.187 0.187    0     0.0    0.0     0.0    0.0      0.0    0.0    0.0 
  47   54  1 1  1 00.01235   0.00475       0.0    0.187 0.187 0.187    0     0.0    0.0     0.0    0.0      0.0    0.0    0.0 
  48   49  1 1  1 00.013     0.005         0.0    0.187 0.187 0.187    0     0.0    0.0     0.0    0.0      0.0    0.0    0.0 
  49   50  1 1  1 00.009425  0.003625      0.0    0.187 0.187 0.187    0     0.0    0.0     0.0    0.0      0.0    0.0    0.0 
  50   51  1 1  1 00.0065    0.0025        0.0    0.187 0.187 0.187    0     0.0    0.0     0.0    0.0      0.0    0.0    0.0 
  51   52  1 1  1 00.00975   0.00375       0.0    0.187 0.187 0.187    0     0.0    0.0     0.0    0.0      0.0    0.0    0.0 
  51   53  1 1  1 00.01528   0.005875      0.0    0.187 0.187 0.187    0     0.0    0.0     0.0    0.0      0.0    0.0    0.0 
  54   55  1 1  1 00.008125  0.003125      0.0    0.187 0.187 0.187    0     0.0    0.0     0.0    0.0      0.0    0.0    0.0 
  55   56  1 1  1 00.008125  0.003125      0.0    0.187 0.187 0.187    0     0.0    0.0     0.0    0.0      0.0    0.0    0.0 
  56   58  1 1  1 00.008125  0.003125      0.0    0.187 0.187 0.187    0     0.0    0.0     0.0    0.0      0.0    0.0    0.0 
  56   59  1 1  1 00.008775  0.003375      0.0    0.187 0.187 0.187    0     0.0    0.0     0.0    0.0      0.0    0.0    0.0 
  58   57  1 1  1 00.0143    0.0055        0.0    0.187 0.187 0.187    0     0.0    0.0     0.0    0.0      0.0    0.0    0.0 
  59   60  1 1  1 00.01137   0.004375      0.0    0.187 0.187 0.187    0     0.0    0.0     0.0    0.0      0.0    0.0    0.0 
  60   61  1 1  1 00.01787   0.006875      0.0    0.187 0.187 0.187    0     0.0    0.0     0.0    0.0      0.0    0.0    0.0 
-999
LOSS ZONE FOLLOWS                      1 ITEMS
1  LV_VILLAGE
-99
INTERCHANGE DATA FOLLOWS               0 ITEMS
-9
TIE LINES FOLLOWS                      0 ITEMS
-999
END OF DATA
